sectionalized/peak_load/20pc/TNB_DUMA_VLN.Txt

SYMMETRICAL COMPONENT VOLTAGES BY BUS (for 3-phase buses)

Bus               Mag:   V1 (kV)    p.u.     V2 (kV)   %V2/V1    V0 (kV)    %V0/V1

ppu_duma_33kv        18.98     0.9964  9.272E-009  4.884E-008 1.239E-009 6.528E-009
ppu_duma_11kv_a      6.266     0.9867  3.251E-009  5.189E-008 7.689E-012 1.227E-010
ppu_duma_11kv_b      6.239     0.9824  3.239E-009  5.192E-008 1.145E-011 1.835E-010
rpplngi2             6.236     0.9819  3.238E-009  5.192E-008 1.216E-011 1.95E-010
pdtjlnmasjid         6.234     0.9816  3.237E-009  5.192E-008 1.274E-011 2.044E-010
bella                6.232     0.9813  3.236E-009  5.192E-008 1.315E-011 2.11E-010
pstpdgn              6.232     0.9812  3.236E-009  5.193E-008 1.336E-011 2.144E-010
atria_1              6.254     0.9848  3.246E-009  5.19E-008 1.173E-011 1.875E-010
hawker               6.256      0.985  3.247E-009  5.19E-008 1.693E-011 2.707E-010
duma7                6.242     0.9828  3.24E-009  5.192E-008 1.154E-011 1.849E-010
haus                 6.255     0.9849  3.247E-009  5.19E-008 1.558E-011 2.49E-010
duma6                6.295     0.9912  3.265E-009  5.187E-008 4.69E-011 7.451E-010
duma13               6.336     0.9976  3.285E-009  5.184E-008 7.997E-011 1.262E-009
ssu_duma5_im2        6.338      0.998  3.286E-009  5.184E-008 8.031E-011 1.267E-009
pdtlitrak            6.272     0.9876  3.254E-009  5.188E-008 1.212E-011 1.933E-010
duma12               6.285     0.9897  3.26E-009  5.187E-008 1.274E-011 2.027E-010
tmngh4               6.301     0.9922  3.267E-009  5.185E-008 2.292E-011 3.638E-010
ssu_tmegah3_ir1      6.307     0.9931  3.27E-009  5.185E-008 2.831E-011 4.489E-010
tmngh2               6.309     0.9934  3.271E-009  5.185E-008 3.051E-011 4.836E-010
ssu_uptwres_im2      6.238     0.9823  3.239E-009  5.192E-008 1.395E-011 2.236E-010
maybank              6.247     0.9837  3.243E-009  5.191E-008 1.419E-011 2.271E-010
duma8                6.249      0.984  3.244E-009  5.191E-008 1.458E-011 2.333E-010
duma9                6.247     0.9837  3.243E-009  5.191E-008 1.225E-011 1.96E-010
duma1                 6.25     0.9842  3.244E-009  5.191E-008 1.268E-011 2.028E-010
elite                6.252     0.9844  3.245E-009  5.19E-008 1.284E-011 2.054E-010
pamdra               6.268      0.987  3.252E-009  5.188E-008 7.669E-012 1.224E-010
duma4                6.273     0.9878  3.254E-009  5.188E-008 9.489E-012 1.513E-010
plsdra               6.283     0.9893  3.259E-009  5.187E-008 1.902E-011 3.027E-010
prmte                6.243      0.983  3.241E-009  5.191E-008 2.289E-011 3.667E-010
prmta                 6.24     0.9826  3.24E-009  5.191E-008 2.31E-011 3.702E-010
pmontb               6.241     0.9827  3.24E-009  5.191E-008 2.397E-011 3.841E-010
plngi_b              6.277     0.9884  3.256E-009  5.187E-008 7.533E-012  1.2E-010
plngi_d              6.285     0.9896  3.26E-009  5.187E-008 7.418E-012 1.18E-010
sprk9                6.248     0.9838  3.243E-009  5.191E-008  9.8E-012 1.568E-010
bomba                6.248     0.9838  3.243E-009  5.191E-008 1.102E-011 1.763E-010
sprk8                6.248     0.9838  3.243E-009  5.191E-008 1.434E-011 2.296E-010
ssu_dsarcntr_ir1     6.273     0.9877  3.254E-009  5.188E-008 7.545E-012 1.203E-010
duma10               6.285     0.9897  3.26E-009  5.187E-008 7.765E-012 1.235E-010
balaipolis           6.286     0.9897  3.26E-009  5.187E-008 7.768E-012 1.236E-010
ssu_uptwres_ir1      6.281     0.9891  3.258E-009  5.187E-008 1.914E-011 3.048E-010
ppu_duma_vcb1            0          0          0          0         0         0
